1

   Abaqus 3DEXPERIENCE R2018x                                  Date 14-Feb-2022   Time 16:32:27
   For use by UNIVERSITY OF NOTTINGHAM under license from Dassault Systemes or its subsidiary.



                         The Abaqus Software is a product of:

                           Dassault Systemes SIMULIA Corp.
                           1301 Atwood Avenue, Suite 101W
                              Johnston, RI 02919, USA
 


                   The Abaqus Software is available only under license
                   from Dassault Systemes or its subsidiary and may be
                   used or reproduced only in accordance with the terms
                   of such license.
 
                          On machine DUIP72568 
                          you are authorized to run
                          Abaqus/Standard until 31-Jan-2023

                          Your site id is: SIT00004262 


 
                    For assistance or any other information you may
                    obtain contact information for your local office
                    from the world wide web at:

                      http://www.3ds.com/products/simulia/locations/

 
                * * * * * * * * * * * * * * * * * * * * * * * * * * * * * * 
                *                                                         * 
                *                   *****************                     * 
                *                   *  N O T I C E  *                     * 
                *                   *****************                     * 
                *                                                         * 
                *                                                         * 
                *               Abaqus 3DEXPERIENCE R2018x                * 
                *                                                         * 
                *          BUILD ID: 2017_11_07-17.21.41 127140           * 
                *                                                         * 
                *                                                         * 
                *  Please make sure you are using                         * 
                *  release 3DEXPERIENCE R2018x manuals                    * 
                *  plus the notes accompanying this release.              * 
                *                                                         * 
                *                                                         * 
                *                                                         * 
                *                                                         * 
                *                                                         * 
                *   This program may not be used for commercial purposes  * 
                *           without payment of a commercial fee.          * 
                *                                                         * 
                * * * * * * * * * * * * * * * * * * * * * * * * * * * * * * 


 



     PROCESSING PART, INSTANCE, AND ASSEMBLY INFORMATION
   *******************************************************


     END PROCESSING PART, INSTANCE, AND ASSEMBLY INFORMATION
   ***********************************************************




     OPTIONS BEING PROCESSED
   ***************************


  *Node
  *Element, Type=C3D8R
  *NSet, NSet=hold, Unsorted
  *Boundary
  *Boundary

 ***ERROR: 30 elements have missing property definitions. The elements have 
           been identified in element set ErrElemMissingSection.
 ***NOTE: DUE TO AN INPUT ERROR THE ANALYSIS PRE-PROCESSOR HAS BEEN UNABLE TO 
          INTERPRET SOME DATA.  SUBSEQUENT ERRORS MAY BE CAUSED BY THIS OMISSION
  *Step, Name=myStep
  *Step, Name=myStep
  *Step, Name=myStep
  *Static
  *End Step
  *Boundary
  *Step, Name=myStep
  *Static
  *End Step

 ***WARNING: NO SECTION DEFINITIONS FOUND



                            P R O B L E M   S I Z E


          NUMBER OF ELEMENTS IS                                    30
          NUMBER OF NODES IS                                       72
          NUMBER OF NODES DEFINED BY THE USER                      72
          TOTAL NUMBER OF VARIABLES IN THE MODEL                  216
          (DEGREES OF FREEDOM PLUS MAX NO. OF ANY LAGRANGE MULTIPLIER
           VARIABLES. INCLUDE *PRINT,SOLVE=YES TO GET THE ACTUAL NUMBER.)





          THE PROGRAM HAS DISCOVERED     1 FATAL ERRORS

               ** EXECUTION IS TERMINATED **



                              END OF USER INPUT PROCESSING



     JOB TIME SUMMARY
       USER TIME (SEC)      =   0.0000    
       SYSTEM TIME (SEC)    =  0.20000    
       TOTAL CPU TIME (SEC) =  0.20000    
       WALLCLOCK TIME (SEC) =          0
